[root]
type=Root
children=system
eventq_index=0
full_system=false
sim_quantum=0
time_sync_enable=false
time_sync_period=100000000000
time_sync_spin_threshold=100000000

[system]
type=System
children=clk_domain cpu cpu_clk_domain cpu_voltage_domain dvfs_handler future_cpus mem_ctrls0 mem_ctrls1 mem_ctrls2 mem_ctrls3 redirect_paths0 redirect_paths1 redirect_paths2 ruby sys_port_proxy voltage_domain
cache_line_size=64
eventq_index=0
exit_on_work_items=false
init_param=0
kvm_vm=Null
m5ops_base=4294901760
mem_mode=atomic_noncaching
mem_ranges=0:17179869184
memories=system.mem_ctrls0 system.mem_ctrls1 system.mem_ctrls2 system.mem_ctrls3 system.ruby.phys_mem
mmap_using_noreserve=false
multi_thread=false
num_work_ids=16
readfile=
redirect_paths=system.redirect_paths0 system.redirect_paths1 system.redirect_paths2
symbolfile=
thermal_components=
thermal_model=Null
work_begin_ckpt_count=0
work_begin_cpu_id_exit=-1
work_begin_exit_count=0
work_cpus_ckpt_count=0
work_end_ckpt_count=0
work_end_exit_count=0
work_item_id=-1
workload=Null
system_port=system.sys_port_proxy.slave[0]

[system.clk_domain]
type=SrcClockDomain
clock=1000
domain_id=-1
eventq_index=0
init_perf_level=0
voltage_domain=system.voltage_domain

[system.cpu]
type=AtomicSimpleCPU
children=accelManager dtb interrupts isa itb power_state tracer workload
accelManager=system.cpu.accelManager
branchPred=Null
checker=Null
clk_domain=system.cpu_clk_domain
cpu_id=0
deadlock_interval=200000000
do_checkpoint_insts=true
do_quiesce=true
do_statistics_insts=true
dtb=system.cpu.dtb
enableIdeaCache=false
enableIdeaInorderCPU=false
eventq_index=0
function_acc_tick=true
function_trace=false
function_trace_start=0
interrupts=system.cpu.interrupts
isa=system.cpu.isa
itb=system.cpu.itb
max_insts_all_threads=0
max_insts_any_thread=0
numThreads=1
power_gating_on_idle=false
power_model=
power_state=system.cpu.power_state
profile=0
progress_interval=10000000000
pwr_gating_latency=300
simpoint_start_insts=
simulate_data_stalls=false
simulate_inst_stalls=false
socket_id=0
switched_out=false
syscallRetryLatency=10000
system=system
tracer=system.cpu.tracer
wait_for_remote_gdb=false
width=1
workload=system.cpu.workload
yield_latency=0
dcache_port=system.ruby.l0_cntrl0.sequencer.slave[1]
icache_port=system.ruby.l0_cntrl0.sequencer.slave[0]

[system.cpu.accelManager]
type=GemForgeAcceleratorManager
children=accelerators
accelerators=system.cpu.accelManager.accelerators
eventq_index=0

[system.cpu.accelManager.accelerators]
type=StreamEngine
computeMaxInflyComputation=32
computeSIMDDelay=0
computeWidth=1
defaultRunAheadLength=4
enableFineGrainedNearDataComputing=false
enableFloatIndirectReduction=false
enableFloatMem=false
enableFloatTwoLevelIndirectStoreCompute=false
enableRangeSync=false
enableZeroComputeLatency=false
eventq_index=0
floatLevelPolicy=static
hasScalarALU=true
maxNumElementsPrefetchForAtomic=1024
mlc_stream_buffer_init_num_entries=32
streamEngineContinuousStore=false
streamEngineEnableCoalesce=true
streamEngineEnableFloat=false
streamEngineEnableFloatCancel=false
streamEngineEnableFloatIndirect=false
streamEngineEnableFloatPseudo=false
streamEngineEnableLSQ=true
streamEngineEnableMerge=false
streamEngineEnableMidwayFloat=false
streamEngineEnablePlacement=false
streamEngineEnablePlacementBus=false
streamEngineEnablePlacementOracle=false
streamEngineFloatPolicy=static
streamEngineForceNoFlushPEB=false
streamEngineIsOracle=false
streamEngineMidwayFloatElementIdx=-1
streamEngineNoBypassingStore=false
streamEnginePeriodReset=false
streamEnginePlacement=placement
streamEnginePlacementLat=
throttling=global
totalRunAheadBytes=2048
totalRunAheadLength=128

[system.cpu.dtb]
type=X86TLB
children=walker
assoc=0
eventq_index=0
l2_lat=8
l2assoc=16
l2size=0
size=64
system=system
timing_se=false
walker=system.cpu.dtb.walker
walker_se_lat=17
walker_se_port=2

[system.cpu.dtb.walker]
type=X86PagetableWalker
children=power_state
clk_domain=system.cpu_clk_domain
eventq_index=0
num_squash_per_cycle=4
power_model=
power_state=system.cpu.dtb.walker.power_state
system=system
port=system.ruby.l0_cntrl0.sequencer.slave[4]

[system.cpu.dtb.walker.power_state]
type=PowerState
clk_gate_bins=20
clk_gate_max=1000000000000
clk_gate_min=1000
default_state=UNDEFINED
eventq_index=0
leaders=
possible_states=

[system.cpu.interrupts]
type=X86LocalApic
children=clk_domain
clk_domain=system.cpu.interrupts.clk_domain
eventq_index=0
int_latency=1000
pio_latency=100000
system=system
int_master=system.ruby.l0_cntrl0.sequencer.slave[2]
int_slave=system.ruby.l0_cntrl0.sequencer.master[1]
pio=system.ruby.l0_cntrl0.sequencer.master[0]

[system.cpu.interrupts.clk_domain]
type=DerivedClockDomain
clk_divider=16
clk_domain=system.cpu_clk_domain
eventq_index=0

[system.cpu.isa]
type=X86ISA
eventq_index=0

[system.cpu.itb]
type=X86TLB
children=walker
assoc=0
eventq_index=0
l2_lat=8
l2assoc=16
l2size=0
size=64
system=system
timing_se=false
walker=system.cpu.itb.walker
walker_se_lat=17
walker_se_port=2

[system.cpu.itb.walker]
type=X86PagetableWalker
children=power_state
clk_domain=system.cpu_clk_domain
eventq_index=0
num_squash_per_cycle=4
power_model=
power_state=system.cpu.itb.walker.power_state
system=system
port=system.ruby.l0_cntrl0.sequencer.slave[3]

[system.cpu.itb.walker.power_state]
type=PowerState
clk_gate_bins=20
clk_gate_max=1000000000000
clk_gate_min=1000
default_state=UNDEFINED
eventq_index=0
leaders=
possible_states=

[system.cpu.power_state]
type=PowerState
clk_gate_bins=20
clk_gate_max=1000000000000
clk_gate_min=1000
default_state=UNDEFINED
eventq_index=0
leaders=
possible_states=ON CLK_GATED OFF

[system.cpu.tracer]
type=ExeTracer
eventq_index=0

[system.cpu.workload]
type=Process
cmd=stream/extra/stream.exe 1 /home2/youngook/research/01_NDP/01_ISCA_23/gem-forge-framework/dataset/synthetic_vector_96dimension
cwd=/home2/youngook/research/01_NDP/01_ISCA_23/gem-forge-framework/example_gcn
drivers=
egid=100
enableStreamNUCA=false
env=
errout=cerr
euid=100
eventq_index=0
executable=stream/extra/stream.exe
exitGroup=true
gid=100
input=cin
kvmInSE=false
lazyAllocation=false
markEnd=-1
markHistory=
markSwitchcpu=-1
maxStackSize=67108864
output=cout
pgid=100
pid=100
ppid=0
release=5.1.0
simpoint=0
streamNUCAIndPageRemapPolicy=closest
streamNUCAIndPageRemapThreshold=0.0
system=system
uid=100
useArchPT=false
yieldWakeup=2000000

[system.cpu_clk_domain]
type=SrcClockDomain
clock=500
domain_id=-1
eventq_index=0
init_perf_level=0
voltage_domain=system.cpu_voltage_domain

[system.cpu_voltage_domain]
type=VoltageDomain
eventq_index=0
voltage=1.0

[system.dvfs_handler]
type=DVFSHandler
domains=
enable=false
eventq_index=0
sys_clk_domain=system.clk_domain
transition_latency=100000000

[system.future_cpus]
type=DerivO3CPU
children=accelManager branchPred dtb fuPool isa itb power_state tracer
LFSTSize=1024
LQEntries=72
LSQCheckLoads=true
LSQDepCheckShift=2
SQEntries=56
SSITSize=1024
accelManager=system.future_cpus.accelManager
activity=0
backComSize=5
branchPred=system.future_cpus.branchPred
cacheLoadPorts=200
cacheStorePorts=200
checker=Null
clk_domain=system.cpu_clk_domain
commitToDecodeDelay=1
commitToFetchDelay=1
commitToIEWDelay=1
commitToRenameDelay=1
commitWidth=8
cpu_id=0
deadlock_interval=200000000
decodeToFetchDelay=1
decodeToRenameDelay=1
decodeWidth=8
dispatchWidth=8
do_checkpoint_insts=true
do_quiesce=true
do_statistics_insts=true
dtb=system.future_cpus.dtb
enableIdeaCache=false
enableIdeaInorderCPU=false
eventq_index=0
fetchBufferSize=64
fetchQueueSize=32
fetchToDecodeDelay=1
fetchTrapLatency=1
fetchWidth=8
forwardComSize=6
fuPool=system.future_cpus.fuPool
function_acc_tick=true
function_trace=false
function_trace_start=0
iewToCommitDelay=1
iewToDecodeDelay=1
iewToFetchDelay=1
iewToRenameDelay=1
interrupts=
isa=system.future_cpus.isa
issueToExecuteDelay=1
issueWidth=8
itb=system.future_cpus.itb
max_insts_all_threads=0
max_insts_any_thread=50000000000
needsTSO=true
numIQEntries=64
numPhysCCRegs=1280
numPhysFloatRegs=512
numPhysIntRegs=256
numPhysVecPredRegs=32
numPhysVecRegs=256
numROBEntries=224
numRobs=1
numThreads=1
power_gating_on_idle=false
power_model=
power_state=system.future_cpus.power_state
profile=0
progress_interval=100000000
pwr_gating_latency=300
renameToDecodeDelay=1
renameToFetchDelay=1
renameToIEWDelay=2
renameToROBDelay=1
renameWidth=8
simpoint_start_insts=
smtCommitPolicy=RoundRobin
smtFetchPolicy=SingleThread
smtIQPolicy=Partitioned
smtIQThreshold=100
smtLSQPolicy=Partitioned
smtLSQThreshold=100
smtNumFetchingThreads=1
smtROBPolicy=Partitioned
smtROBThreshold=100
socket_id=0
squashWidth=8
store_set_clear_period=250000
switched_out=true
syscallRetryLatency=10000
system=system
tracer=system.future_cpus.tracer
trapLatency=13
wait_for_remote_gdb=false
wbWidth=8
workload=system.cpu.workload
yield_latency=0

[system.future_cpus.accelManager]
type=GemForgeAcceleratorManager
accelerators=
eventq_index=0

[system.future_cpus.branchPred]
type=LTAGE
children=indirectBranchPred loop_predictor tage
BTBEntries=4096
BTBTagSize=16
RASSize=16
eventq_index=0
indirectBranchPred=system.future_cpus.branchPred.indirectBranchPred
instShiftAmt=2
loop_predictor=system.future_cpus.branchPred.loop_predictor
numThreads=1
tage=system.future_cpus.branchPred.tage

[system.future_cpus.branchPred.indirectBranchPred]
type=SimpleIndirectPredictor
eventq_index=0
indirectGHRBits=13
indirectHashGHR=true
indirectHashTargets=true
indirectPathLength=3
indirectSets=256
indirectTagSize=16
indirectWays=2
instShiftAmt=2
numThreads=1

[system.future_cpus.branchPred.loop_predictor]
type=LoopPredictor
eventq_index=0
initialLoopAge=255
initialLoopIter=1
logLoopTableAssoc=2
logSizeLoopPred=8
loopTableAgeBits=8
loopTableConfidenceBits=2
loopTableIterBits=14
loopTableTagBits=14
optionalAgeReset=true
restrictAllocation=false
useDirectionBit=false
useHashing=false
useSpeculation=false
withLoopBits=7

[system.future_cpus.branchPred.tage]
type=TAGEBase
eventq_index=0
histBufferSize=2097152
initialTCounterValue=131072
instShiftAmt=2
logRatioBiModalHystEntries=2
logTagTableSizes=14 10 10 11 11 11 11 10 10 10 10 9 9
logUResetPeriod=19
maxHist=640
maxNumAlloc=1
minHist=4
nHistoryTables=12
noSkip=
numThreads=1
numUseAltOnNa=1
pathHistBits=16
speculativeHistUpdate=true
tagTableCounterBits=3
tagTableTagWidths=0 7 7 8 8 9 10 11 12 12 13 14 15
tagTableUBits=2
useAltOnNaBits=4

[system.future_cpus.dtb]
type=X86TLB
children=walker
assoc=8
eventq_index=0
l2_lat=8
l2assoc=16
l2size=2048
size=64
system=system
timing_se=true
walker=system.future_cpus.dtb.walker
walker_se_lat=16
walker_se_port=2

[system.future_cpus.dtb.walker]
type=X86PagetableWalker
children=power_state
clk_domain=system.cpu_clk_domain
eventq_index=0
num_squash_per_cycle=4
power_model=
power_state=system.future_cpus.dtb.walker.power_state
system=system

[system.future_cpus.dtb.walker.power_state]
type=PowerState
clk_gate_bins=20
clk_gate_max=1000000000000
clk_gate_min=1000
default_state=UNDEFINED
eventq_index=0
leaders=
possible_states=

[system.future_cpus.fuPool]
type=FUPool
children=FUList00 FUList01 FUList02 FUList03 FUList04 FUList05 FUList06 FUList07 FUList08 FUList09 FUList10
FUList=system.future_cpus.fuPool.FUList00 system.future_cpus.fuPool.FUList01 system.future_cpus.fuPool.FUList02 system.future_cpus.fuPool.FUList03 system.future_cpus.fuPool.FUList04 system.future_cpus.fuPool.FUList05 system.future_cpus.fuPool.FUList06 system.future_cpus.fuPool.FUList07 system.future_cpus.fuPool.FUList08 system.future_cpus.fuPool.FUList09 system.future_cpus.fuPool.FUList10
eventq_index=0

[system.future_cpus.fuPool.FUList00]
type=FUDesc
children=opList
count=8
eventq_index=0
opList=system.future_cpus.fuPool.FUList00.opList

[system.future_cpus.fuPool.FUList00.opList]
type=OpDesc
eventq_index=0
opClass=IntAlu
opLat=1
pipelined=true

[system.future_cpus.fuPool.FUList01]
type=FUDesc
children=opList0 opList1
count=4
eventq_index=0
opList=system.future_cpus.fuPool.FUList01.opList0 system.future_cpus.fuPool.FUList01.opList1

[system.future_cpus.fuPool.FUList01.opList0]
type=OpDesc
eventq_index=0
opClass=IntMult
opLat=3
pipelined=true

[system.future_cpus.fuPool.FUList01.opList1]
type=OpDesc
eventq_index=0
opClass=IntDiv
opLat=1
pipelined=false

[system.future_cpus.fuPool.FUList02]
type=FUDesc
children=opList0 opList1 opList2
count=4
eventq_index=0
opList=system.future_cpus.fuPool.FUList02.opList0 system.future_cpus.fuPool.FUList02.opList1 system.future_cpus.fuPool.FUList02.opList2

[system.future_cpus.fuPool.FUList02.opList0]
type=OpDesc
eventq_index=0
opClass=FloatAdd
opLat=2
pipelined=true

[system.future_cpus.fuPool.FUList02.opList1]
type=OpDesc
eventq_index=0
opClass=FloatCmp
opLat=2
pipelined=true

[system.future_cpus.fuPool.FUList02.opList2]
type=OpDesc
eventq_index=0
opClass=FloatCvt
opLat=2
pipelined=true

[system.future_cpus.fuPool.FUList03]
type=FUDesc
children=opList0 opList1 opList2 opList3 opList4
count=4
eventq_index=0
opList=system.future_cpus.fuPool.FUList03.opList0 system.future_cpus.fuPool.FUList03.opList1 system.future_cpus.fuPool.FUList03.opList2 system.future_cpus.fuPool.FUList03.opList3 system.future_cpus.fuPool.FUList03.opList4

[system.future_cpus.fuPool.FUList03.opList0]
type=OpDesc
eventq_index=0
opClass=FloatMult
opLat=4
pipelined=true

[system.future_cpus.fuPool.FUList03.opList1]
type=OpDesc
eventq_index=0
opClass=FloatMultAcc
opLat=5
pipelined=true

[system.future_cpus.fuPool.FUList03.opList2]
type=OpDesc
eventq_index=0
opClass=FloatMisc
opLat=3
pipelined=true

[system.future_cpus.fuPool.FUList03.opList3]
type=OpDesc
eventq_index=0
opClass=FloatDiv
opLat=12
pipelined=false

[system.future_cpus.fuPool.FUList03.opList4]
type=OpDesc
eventq_index=0
opClass=FloatSqrt
opLat=24
pipelined=false

[system.future_cpus.fuPool.FUList04]
type=FUDesc
children=opList0 opList1
count=0
eventq_index=0
opList=system.future_cpus.fuPool.FUList04.opList0 system.future_cpus.fuPool.FUList04.opList1

[system.future_cpus.fuPool.FUList04.opList0]
type=OpDesc
eventq_index=0
opClass=MemRead
opLat=1
pipelined=true

[system.future_cpus.fuPool.FUList04.opList1]
type=OpDesc
eventq_index=0
opClass=FloatMemRead
opLat=1
pipelined=true

[system.future_cpus.fuPool.FUList05]
type=FUDesc
children=opList00 opList01 opList02 opList03 opList04 opList05 opList06 opList07 opList08 opList09 opList10 opList11
count=4
eventq_index=0
opList=system.future_cpus.fuPool.FUList05.opList00 system.future_cpus.fuPool.FUList05.opList01 system.future_cpus.fuPool.FUList05.opList02 system.future_cpus.fuPool.FUList05.opList03 system.future_cpus.fuPool.FUList05.opList04 system.future_cpus.fuPool.FUList05.opList05 system.future_cpus.fuPool.FUList05.opList06 system.future_cpus.fuPool.FUList05.opList07 system.future_cpus.fuPool.FUList05.opList08 system.future_cpus.fuPool.FUList05.opList09 system.future_cpus.fuPool.FUList05.opList10 system.future_cpus.fuPool.FUList05.opList11

[system.future_cpus.fuPool.FUList05.opList00]
type=OpDesc
eventq_index=0
opClass=SimdAdd
opLat=1
pipelined=true

[system.future_cpus.fuPool.FUList05.opList01]
type=OpDesc
eventq_index=0
opClass=SimdAddAcc
opLat=1
pipelined=true

[system.future_cpus.fuPool.FUList05.opList02]
type=OpDesc
eventq_index=0
opClass=SimdAlu
opLat=1
pipelined=true

[system.future_cpus.fuPool.FUList05.opList03]
type=OpDesc
eventq_index=0
opClass=SimdCmp
opLat=1
pipelined=true

[system.future_cpus.fuPool.FUList05.opList04]
type=OpDesc
eventq_index=0
opClass=SimdCvt
opLat=1
pipelined=true

[system.future_cpus.fuPool.FUList05.opList05]
type=OpDesc
eventq_index=0
opClass=SimdMisc
opLat=1
pipelined=true

[system.future_cpus.fuPool.FUList05.opList06]
type=OpDesc
eventq_index=0
opClass=SimdMult
opLat=1
pipelined=true

[system.future_cpus.fuPool.FUList05.opList07]
type=OpDesc
eventq_index=0
opClass=SimdMultAcc
opLat=1
pipelined=true

[system.future_cpus.fuPool.FUList05.opList08]
type=OpDesc
eventq_index=0
opClass=SimdShift
opLat=1
pipelined=true

[system.future_cpus.fuPool.FUList05.opList09]
type=OpDesc
eventq_index=0
opClass=SimdShiftAcc
opLat=1
pipelined=true

[system.future_cpus.fuPool.FUList05.opList10]
type=OpDesc
eventq_index=0
opClass=SimdDiv
opLat=1
pipelined=true

[system.future_cpus.fuPool.FUList05.opList11]
type=OpDesc
eventq_index=0
opClass=SimdSqrt
opLat=1
pipelined=true

[system.future_cpus.fuPool.FUList06]
type=FUDesc
children=opList00 opList01 opList02 opList03 opList04 opList05 opList06 opList07 opList08 opList09 opList10 opList11 opList12 opList13
count=4
eventq_index=0
opList=system.future_cpus.fuPool.FUList06.opList00 system.future_cpus.fuPool.FUList06.opList01 system.future_cpus.fuPool.FUList06.opList02 system.future_cpus.fuPool.FUList06.opList03 system.future_cpus.fuPool.FUList06.opList04 system.future_cpus.fuPool.FUList06.opList05 system.future_cpus.fuPool.FUList06.opList06 system.future_cpus.fuPool.FUList06.opList07 system.future_cpus.fuPool.FUList06.opList08 system.future_cpus.fuPool.FUList06.opList09 system.future_cpus.fuPool.FUList06.opList10 system.future_cpus.fuPool.FUList06.opList11 system.future_cpus.fuPool.FUList06.opList12 system.future_cpus.fuPool.FUList06.opList13

[system.future_cpus.fuPool.FUList06.opList00]
type=OpDesc
eventq_index=0
opClass=SimdFloatAdd
opLat=2
pipelined=true

[system.future_cpus.fuPool.FUList06.opList01]
type=OpDesc
eventq_index=0
opClass=SimdFloatAlu
opLat=2
pipelined=true

[system.future_cpus.fuPool.FUList06.opList02]
type=OpDesc
eventq_index=0
opClass=SimdFloatCmp
opLat=2
pipelined=true

[system.future_cpus.fuPool.FUList06.opList03]
type=OpDesc
eventq_index=0
opClass=SimdFloatCvt
opLat=2
pipelined=true

[system.future_cpus.fuPool.FUList06.opList04]
type=OpDesc
eventq_index=0
opClass=SimdFloatDiv
opLat=2
pipelined=true

[system.future_cpus.fuPool.FUList06.opList05]
type=OpDesc
eventq_index=0
opClass=SimdFloatMisc
opLat=2
pipelined=true

[system.future_cpus.fuPool.FUList06.opList06]
type=OpDesc
eventq_index=0
opClass=SimdFloatMult
opLat=2
pipelined=true

[system.future_cpus.fuPool.FUList06.opList07]
type=OpDesc
eventq_index=0
opClass=SimdFloatMultAcc
opLat=2
pipelined=true

[system.future_cpus.fuPool.FUList06.opList08]
type=OpDesc
eventq_index=0
opClass=SimdFloatSqrt
opLat=2
pipelined=true

[system.future_cpus.fuPool.FUList06.opList09]
type=OpDesc
eventq_index=0
opClass=SimdReduceAdd
opLat=2
pipelined=true

[system.future_cpus.fuPool.FUList06.opList10]
type=OpDesc
eventq_index=0
opClass=SimdReduceAlu
opLat=2
pipelined=true

[system.future_cpus.fuPool.FUList06.opList11]
type=OpDesc
eventq_index=0
opClass=SimdReduceCmp
opLat=2
pipelined=true

[system.future_cpus.fuPool.FUList06.opList12]
type=OpDesc
eventq_index=0
opClass=SimdFloatReduceAdd
opLat=2
pipelined=true

[system.future_cpus.fuPool.FUList06.opList13]
type=OpDesc
eventq_index=0
opClass=SimdFloatReduceCmp
opLat=2
pipelined=true

[system.future_cpus.fuPool.FUList07]
type=FUDesc
children=opList
count=1
eventq_index=0
opList=system.future_cpus.fuPool.FUList07.opList

[system.future_cpus.fuPool.FUList07.opList]
type=OpDesc
eventq_index=0
opClass=SimdPredAlu
opLat=1
pipelined=true

[system.future_cpus.fuPool.FUList08]
type=FUDesc
children=opList0 opList1
count=0
eventq_index=0
opList=system.future_cpus.fuPool.FUList08.opList0 system.future_cpus.fuPool.FUList08.opList1

[system.future_cpus.fuPool.FUList08.opList0]
type=OpDesc
eventq_index=0
opClass=MemWrite
opLat=1
pipelined=true

[system.future_cpus.fuPool.FUList08.opList1]
type=OpDesc
eventq_index=0
opClass=FloatMemWrite
opLat=1
pipelined=true

[system.future_cpus.fuPool.FUList09]
type=FUDesc
children=opList0 opList1 opList2 opList3
count=4
eventq_index=0
opList=system.future_cpus.fuPool.FUList09.opList0 system.future_cpus.fuPool.FUList09.opList1 system.future_cpus.fuPool.FUList09.opList2 system.future_cpus.fuPool.FUList09.opList3

[system.future_cpus.fuPool.FUList09.opList0]
type=OpDesc
eventq_index=0
opClass=MemRead
opLat=1
pipelined=true

[system.future_cpus.fuPool.FUList09.opList1]
type=OpDesc
eventq_index=0
opClass=MemWrite
opLat=1
pipelined=true

[system.future_cpus.fuPool.FUList09.opList2]
type=OpDesc
eventq_index=0
opClass=FloatMemRead
opLat=1
pipelined=true

[system.future_cpus.fuPool.FUList09.opList3]
type=OpDesc
eventq_index=0
opClass=FloatMemWrite
opLat=1
pipelined=true

[system.future_cpus.fuPool.FUList10]
type=FUDesc
children=opList
count=1
eventq_index=0
opList=system.future_cpus.fuPool.FUList10.opList

[system.future_cpus.fuPool.FUList10.opList]
type=OpDesc
eventq_index=0
opClass=IprAccess
opLat=3
pipelined=false

[system.future_cpus.isa]
type=X86ISA
eventq_index=0

[system.future_cpus.itb]
type=X86TLB
children=walker
assoc=0
eventq_index=0
l2_lat=8
l2assoc=16
l2size=0
size=64
system=system
timing_se=false
walker=system.future_cpus.itb.walker
walker_se_lat=17
walker_se_port=2

[system.future_cpus.itb.walker]
type=X86PagetableWalker
children=power_state
clk_domain=system.cpu_clk_domain
eventq_index=0
num_squash_per_cycle=4
power_model=
power_state=system.future_cpus.itb.walker.power_state
system=system

[system.future_cpus.itb.walker.power_state]
type=PowerState
clk_gate_bins=20
clk_gate_max=1000000000000
clk_gate_min=1000
default_state=UNDEFINED
eventq_index=0
leaders=
possible_states=

[system.future_cpus.power_state]
type=PowerState
clk_gate_bins=20
clk_gate_max=1000000000000
clk_gate_min=1000
default_state=UNDEFINED
eventq_index=0
leaders=
possible_states=ON CLK_GATED OFF

[system.future_cpus.tracer]
type=ExeTracer
eventq_index=0

[system.mem_ctrls0]
type=DRAMCtrl
children=power_state
IDD0=0.055
IDD02=0.0
IDD2N=0.032
IDD2N2=0.0
IDD2P0=0.0
IDD2P02=0.0
IDD2P1=0.032
IDD2P12=0.0
IDD3N=0.038
IDD3N2=0.0
IDD3P0=0.0
IDD3P02=0.0
IDD3P1=0.038
IDD3P12=0.0
IDD4R=0.157
IDD4R2=0.0
IDD4W=0.125
IDD4W2=0.0
IDD5=0.23500000000000001
IDD52=0.0
IDD6=0.02
IDD62=0.0
VDD=1.5
VDD2=0.0
activation_limit=4
addr_mapping=RoRaBaCoCh
bank_groups_per_rank=0
banks_per_rank=8
beats_per_clock=2
burst_length=8
clk_domain=system.clk_domain
conf_table_reported=true
data_clock_sync=false
device_bus_width=8
device_rowbuffer_size=1024
device_size=536870912
devices_per_rank=8
dll=true
enable_dram_powerdown=false
eventq_index=0
image_file=
in_addr_map=true
kvm_map=false
max_accesses_per_row=16
mem_sched_policy=frfcfs
min_writes_per_switch=16
null=false
page_policy=open_adaptive
power_model=
power_state=system.mem_ctrls0.power_state
qos_masters=               
qos_policy=Null
qos_priorities=1
qos_priority_escalation=false
qos_q_policy=fifo
qos_syncro_scheduler=false
qos_turnaround_policy=Null
range=0:17179869184:0:1048640:2097280
ranks_per_channel=2
read_buffer_size=32
static_backend_latency=10000
static_frontend_latency=10000
tAAD=1250
tBURST=5000
tBURST_MAX=5000
tBURST_MIN=5000
tCCD_L=0
tCCD_L_WR=0
tCK=1250
tCL=13750
tCS=2500
tPPD=0
tRAS=35000
tRCD=13750
tREFI=7800000
tRFC=260000
tRP=13750
tRRD=6000
tRRD_L=0
tRTP=7500
tRTW=2500
tWR=15000
tWTR=7500
tWTR_L=7500
tXAW=30000
tXP=6000
tXPDLL=0
tXS=270000
tXSDLL=0
two_cycle_activate=false
write_buffer_size=64
write_high_thresh_perc=85
write_low_thresh_perc=50
port=system.ruby.dir_cntrl0.memory

[system.mem_ctrls0.power_state]
type=PowerState
clk_gate_bins=20
clk_gate_max=1000000000000
clk_gate_min=1000
default_state=UNDEFINED
eventq_index=0
leaders=
possible_states=

[system.mem_ctrls1]
type=DRAMCtrl
children=power_state
IDD0=0.055
IDD02=0.0
IDD2N=0.032
IDD2N2=0.0
IDD2P0=0.0
IDD2P02=0.0
IDD2P1=0.032
IDD2P12=0.0
IDD3N=0.038
IDD3N2=0.0
IDD3P0=0.0
IDD3P02=0.0
IDD3P1=0.038
IDD3P12=0.0
IDD4R=0.157
IDD4R2=0.0
IDD4W=0.125
IDD4W2=0.0
IDD5=0.23500000000000001
IDD52=0.0
IDD6=0.02
IDD62=0.0
VDD=1.5
VDD2=0.0
activation_limit=4
addr_mapping=RoRaBaCoCh
bank_groups_per_rank=0
banks_per_rank=8
beats_per_clock=2
burst_length=8
clk_domain=system.clk_domain
conf_table_reported=true
data_clock_sync=false
device_bus_width=8
device_rowbuffer_size=1024
device_size=536870912
devices_per_rank=8
dll=true
enable_dram_powerdown=false
eventq_index=0
image_file=
in_addr_map=true
kvm_map=false
max_accesses_per_row=16
mem_sched_policy=frfcfs
min_writes_per_switch=16
null=false
page_policy=open_adaptive
power_model=
power_state=system.mem_ctrls1.power_state
qos_masters=               
qos_policy=Null
qos_priorities=1
qos_priority_escalation=false
qos_q_policy=fifo
qos_syncro_scheduler=false
qos_turnaround_policy=Null
range=0:17179869184:1:1048640:2097280
ranks_per_channel=2
read_buffer_size=32
static_backend_latency=10000
static_frontend_latency=10000
tAAD=1250
tBURST=5000
tBURST_MAX=5000
tBURST_MIN=5000
tCCD_L=0
tCCD_L_WR=0
tCK=1250
tCL=13750
tCS=2500
tPPD=0
tRAS=35000
tRCD=13750
tREFI=7800000
tRFC=260000
tRP=13750
tRRD=6000
tRRD_L=0
tRTP=7500
tRTW=2500
tWR=15000
tWTR=7500
tWTR_L=7500
tXAW=30000
tXP=6000
tXPDLL=0
tXS=270000
tXSDLL=0
two_cycle_activate=false
write_buffer_size=64
write_high_thresh_perc=85
write_low_thresh_perc=50
port=system.ruby.dir_cntrl1.memory

[system.mem_ctrls1.power_state]
type=PowerState
clk_gate_bins=20
clk_gate_max=1000000000000
clk_gate_min=1000
default_state=UNDEFINED
eventq_index=0
leaders=
possible_states=

[system.mem_ctrls2]
type=DRAMCtrl
children=power_state
IDD0=0.055
IDD02=0.0
IDD2N=0.032
IDD2N2=0.0
IDD2P0=0.0
IDD2P02=0.0
IDD2P1=0.032
IDD2P12=0.0
IDD3N=0.038
IDD3N2=0.0
IDD3P0=0.0
IDD3P02=0.0
IDD3P1=0.038
IDD3P12=0.0
IDD4R=0.157
IDD4R2=0.0
IDD4W=0.125
IDD4W2=0.0
IDD5=0.23500000000000001
IDD52=0.0
IDD6=0.02
IDD62=0.0
VDD=1.5
VDD2=0.0
activation_limit=4
addr_mapping=RoRaBaCoCh
bank_groups_per_rank=0
banks_per_rank=8
beats_per_clock=2
burst_length=8
clk_domain=system.clk_domain
conf_table_reported=true
data_clock_sync=false
device_bus_width=8
device_rowbuffer_size=1024
device_size=536870912
devices_per_rank=8
dll=true
enable_dram_powerdown=false
eventq_index=0
image_file=
in_addr_map=true
kvm_map=false
max_accesses_per_row=16
mem_sched_policy=frfcfs
min_writes_per_switch=16
null=false
page_policy=open_adaptive
power_model=
power_state=system.mem_ctrls2.power_state
qos_masters=               
qos_policy=Null
qos_priorities=1
qos_priority_escalation=false
qos_q_policy=fifo
qos_syncro_scheduler=false
qos_turnaround_policy=Null
range=0:17179869184:2:1048640:2097280
ranks_per_channel=2
read_buffer_size=32
static_backend_latency=10000
static_frontend_latency=10000
tAAD=1250
tBURST=5000
tBURST_MAX=5000
tBURST_MIN=5000
tCCD_L=0
tCCD_L_WR=0
tCK=1250
tCL=13750
tCS=2500
tPPD=0
tRAS=35000
tRCD=13750
tREFI=7800000
tRFC=260000
tRP=13750
tRRD=6000
tRRD_L=0
tRTP=7500
tRTW=2500
tWR=15000
tWTR=7500
tWTR_L=7500
tXAW=30000
tXP=6000
tXPDLL=0
tXS=270000
tXSDLL=0
two_cycle_activate=false
write_buffer_size=64
write_high_thresh_perc=85
write_low_thresh_perc=50
port=system.ruby.dir_cntrl2.memory

[system.mem_ctrls2.power_state]
type=PowerState
clk_gate_bins=20
clk_gate_max=1000000000000
clk_gate_min=1000
default_state=UNDEFINED
eventq_index=0
leaders=
possible_states=

[system.mem_ctrls3]
type=DRAMCtrl
children=power_state
IDD0=0.055
IDD02=0.0
IDD2N=0.032
IDD2N2=0.0
IDD2P0=0.0
IDD2P02=0.0
IDD2P1=0.032
IDD2P12=0.0
IDD3N=0.038
IDD3N2=0.0
IDD3P0=0.0
IDD3P02=0.0
IDD3P1=0.038
IDD3P12=0.0
IDD4R=0.157
IDD4R2=0.0
IDD4W=0.125
IDD4W2=0.0
IDD5=0.23500000000000001
IDD52=0.0
IDD6=0.02
IDD62=0.0
VDD=1.5
VDD2=0.0
activation_limit=4
addr_mapping=RoRaBaCoCh
bank_groups_per_rank=0
banks_per_rank=8
beats_per_clock=2
burst_length=8
clk_domain=system.clk_domain
conf_table_reported=true
data_clock_sync=false
device_bus_width=8
device_rowbuffer_size=1024
device_size=536870912
devices_per_rank=8
dll=true
enable_dram_powerdown=false
eventq_index=0
image_file=
in_addr_map=true
kvm_map=false
max_accesses_per_row=16
mem_sched_policy=frfcfs
min_writes_per_switch=16
null=false
page_policy=open_adaptive
power_model=
power_state=system.mem_ctrls3.power_state
qos_masters=               
qos_policy=Null
qos_priorities=1
qos_priority_escalation=false
qos_q_policy=fifo
qos_syncro_scheduler=false
qos_turnaround_policy=Null
range=0:17179869184:3:1048640:2097280
ranks_per_channel=2
read_buffer_size=32
static_backend_latency=10000
static_frontend_latency=10000
tAAD=1250
tBURST=5000
tBURST_MAX=5000
tBURST_MIN=5000
tCCD_L=0
tCCD_L_WR=0
tCK=1250
tCL=13750
tCS=2500
tPPD=0
tRAS=35000
tRCD=13750
tREFI=7800000
tRFC=260000
tRP=13750
tRRD=6000
tRRD_L=0
tRTP=7500
tRTW=2500
tWR=15000
tWTR=7500
tWTR_L=7500
tXAW=30000
tXP=6000
tXPDLL=0
tXS=270000
tXSDLL=0
two_cycle_activate=false
write_buffer_size=64
write_high_thresh_perc=85
write_low_thresh_perc=50
port=system.ruby.dir_cntrl3.memory

[system.mem_ctrls3.power_state]
type=PowerState
clk_gate_bins=20
clk_gate_max=1000000000000
clk_gate_min=1000
default_state=UNDEFINED
eventq_index=0
leaders=
possible_states=

[system.redirect_paths0]
type=RedirectPath
app_path=/proc
eventq_index=0
host_paths=stream/o8/fs/proc

[system.redirect_paths1]
type=RedirectPath
app_path=/sys
eventq_index=0
host_paths=stream/o8/fs/sys

[system.redirect_paths2]
type=RedirectPath
app_path=/tmp
eventq_index=0
host_paths=stream/o8/fs/tmp

[system.ruby]
type=RubySystem
children=clk_domain dir_cntrl0 dir_cntrl1 dir_cntrl2 dir_cntrl3 l0_cntrl0 l1_cntrl0 l2_cntrl0 memctrl_clk_domain network phys_mem power_state
access_backing_store=true
all_instructions=false
block_size_bytes=64
clk_domain=system.ruby.clk_domain
eventq_index=0
hot_lines=false
memory_size_bits=48
num_of_sequencers=1
number_of_virtual_networks=5
phys_mem=system.ruby.phys_mem
power_model=
power_state=system.ruby.power_state
randomization=false

[system.ruby.clk_domain]
type=SrcClockDomain
clock=500
domain_id=-1
eventq_index=0
init_perf_level=0
voltage_domain=system.voltage_domain

[system.ruby.dir_cntrl0]
type=Directory_Controller
children=directory power_state requestFromDir requestToDir requestToMemory responseFromDir responseFromMemory responseToDir streamIndirectFromMem streamIndirectToMem streamMigrateFromMem streamMigrateToMem
addr_ranges=0:17179869184:0:1048640:2097280
buffer_size=0
clk_domain=system.ruby.clk_domain
cluster_id=0
directory=system.ruby.dir_cntrl0.directory
directory_latency=6
enable_llc_stream_zero_compute_latency=false
enable_mlc_stream_idea_pop_check_llc_progress=true
enable_stream_advance_migrate=false
enable_stream_compact_store=false
enable_stream_float=false
enable_stream_float_mem=false